/*--------------------------------*- C++ -*----------------------------------*\
  =========                 |
  \\      /  F ield         | OpenFOAM: The Open Source CFD Toolbox
   \\    /   O peration     | Website:  https://openfoam.org
    \\  /    A nd           | Version:  6
     \\/     M anipulation  |
\*---------------------------------------------------------------------------*/
FoamFile
{
    version     2.0;
    format      ascii;
    class       dictionary;
    location    "constant";
    object      thermophysicalProperties;
}
// * * * * * * * * * * * * * * * * * * * * * * * * * * * * * * * * * * * * * //

thermoType
{
    type            heRhoThermo;
    mixture         pureMixture;
    transport       polynomial;
    thermo          hPolynomial;
    equationOfState icoPolynomial;
    specie          specie;
    energy          sensibleEnthalpy;
}

pRef            100000;

mixture
{
    specie
    {
        molWeight               33.0; // https://www.osti.gov/servlets/purl/1841023
    }
    equationOfState
    {
        rhoCoeffs<8>           (2413.03 -0.488 0 0 0 0 0 0); // Molten salts database for energy applications R. Serrano-L贸pez
    }
    thermodynamics
    {
        CpCoeffs<8>            (2385 0 0 0 0 0 0 0); // Molten salts database for energy applications R. Serrano-L贸pez
        Hf                      0;
        Sf                      0;
    }
    transport
    {
        muCoeffs<8>             (1.0517 -4.0188e-3 5.8969e-6 -3.9061e-9 9.8127e-13 0 0 0); // fitted (R=1, T=800-1000K), Molten salts database for energy applications R. Serrano-L贸pez
        kappaCoeffs<8>          (0.88 0 0 0 0 0 0 0); // Molten salts database for energy applications R. Serrano-L贸pez
    }
}


// ************************************************************************* //
